Package: syrthes
Source: syrthes (4.3.0-dfsg1-2)
Version: 4.3.0-dfsg1-2+b1
Architecture: amd64
Maintainer: Debian Science Maintainers <debian-science-maintainers@lists.alioth.debian.org>
Installed-Size: 4499
Depends: python:any (>= 2.6.6-7~), gcc, make
Recommends: syrthes-tools
Suggests: syrthes-gui, syrthes-tests, code-saturne
Section: science
Priority: extra
Homepage: http://rd.edf.com/syrthes
Description: Transient thermal simulations in complex solid geometries
 SYRTHES is a general purpose thermal software developed at EDF R&D which
 models conduction and radiation heat transfers in complex geometries.
 .
 SYRTHES can be used coupled with the computational fluid dynamics (CFD)
 Code_Saturne.
